test/networks/Project_Wisconsin_geo.m
% Case saved by PowerWorld Simulator, version 21, build date August 9, 2019
function mpc = Project_Wisconsin
mpc.version = '2';

%%-----  Power Flow Data  -----%%
%% system MVA base
mpc.baseMVA = 100.0;
%% bus data
%    bus_i    type    Pd    Qd    Gs    Bs    area    Vm    Va    baseKV    zone    Vmax    Vmin
mpc.bus = [
1	2	0.00	0.00	0.00	0.00	1	1.0000009	-10.514848	22.00	1	1.100	0.900	22.22	0.00	0	0
2	2	0.00	0.00	0.00	0.00	1	1.0000009	-10.519215	22.00	1	1.100	0.900	22.22	0.00	0	0
3	1	22.16	7.03	0.00	0.00	1	0.9864995	-11.271153	345.00	1	1.100	0.900	22.22	0.00	0	0
4	1	0.00	0.00	0.00	0.00	1	0.9631911	-17.685588	345.00	1	1.100	0.900	22.22	0.00	0	0
5	2	474.00	150.40	0.00	95.00	1	0.9577732	-20.964749	138.00	1	1.100	0.900	22.22	0.00	0	0
6	2	0.00	0.00	0.00	0.00	1	1.0000017	-14.721463	13.40	1	1.100	0.900	22.22	0.00	0	0
7	1	117.20	25.00	0.00	25.00	1	0.9350127	-30.967957	138.00	1	1.100	0.900	22.22	0.00	0	0
8	1	1032.70	305.00	0.00	290.00	1	0.9523972	-30.889655	138.00	1	1.100	0.900	22.22	0.00	0	0
9	1	150.60	46.34	0.00	35.00	1	0.9910816	-10.258568	345.00	1	1.100	0.900	22.22	0.00	0	0
10	1	217.50	65.70	0.00	45.00	1	0.9872659	-10.008344	345.00	1	1.100	0.900	22.22	0.00	0	0
11	1	134.00	41.00	0.00	35.00	1	0.9153878	24.062042	345.00	1	1.100	0.900	22.22	0.00	0	0
12	1	0.00	0.00	0.00	0.00	1	0.9877995	-6.389730	345.00	1	1.100	0.900	22.22	0.00	0	0
13	3	0.00	0.00	0.00	0.00	1	1.0000000	0.000000	19.00	1	1.100	0.900	22.22	0.00	0	0
14	1	109.20	32.90	0.00	25.00	1	0.9658389	-14.212890	345.00	1	1.100	0.900	22.22	0.00	0	0
15	1	203.00	80.00	0.00	65.00	1	0.9423578	-24.528802	345.00	1	1.100	0.900	22.22	0.00	0	0
17	1	84.50	25.90	0.00	0.00	1	0.9138386	4.374944	345.00	1	1.100	0.900	22.22	0.00	0	0
18	1	74.07	23.44	0.00	17.00	1	0.9828934	-7.810187	345.00	1	1.100	0.900	22.22	0.00	0	0
19	1	93.23	29.58	0.00	0.00	1	0.9727132	-13.877966	345.00	1	1.100	0.900	22.22	0.00	0	0
20	2	0.00	0.00	0.00	0.00	1	1.0000084	-28.236426	18.00	1	1.100	0.900	22.22	0.00	0	0
21	2	0.00	0.00	0.00	0.00	1	1.0000005	43.425549	345.00	1	1.100	0.900	22.22	0.00	0	0
22	2	0.00	0.00	0.00	0.00	1	1.0000024	-3.291959	345.00	1	1.100	0.900	22.22	0.00	0	0
];

%% generator data
%    bus    Pg    Qg    Qmax    Qmin    Vg    mBase    status    Pmax    Pmin    Pc1    Pc2    Qc1min    Qc1max    Qc2min    Qc2max    ramp_agc    ramp_10    ramp_30    ramp_q    apf
mpc.gen = [
1	105.00	104.67	247.00	-100.00	1.0000	100.00	1	525.00	0.00	0.00	0.00	0.00	0.00	0.00	0.00	0	0	0	0	10.0000	0	0	0	0
2	105.00	105.24	245.00	-100.00	1.0000	100.00	1	525.00	0.00	0.00	0.00	0.00	0.00	0.00	0.00	0	0	0	0	10.0000	0	0	0	0
5	2.00	-1.00	-1.00	-1.00	0.9578	100.00	1	2.00	2.00	0.00	0.00	0.00	0.00	0.00	0.00	0	0	0	0	10.0000	0	0	0	0
6	146.00	49.16	74.00	-58.00	1.0000	100.00	1	146.00	0.00	0.00	0.00	0.00	0.00	0.00	0.00	0	0	0	0	10.0000	0	0	0	0
13	512.02	74.74	205.60	0.00	1.0000	100.00	1	512.00	150.00	0.00	0.00	0.00	0.00	0.00	0.00	0	0	0	0	10.0000	0	0	0	0
13	514.02	71.98	198.00	0.00	1.0000	100.00	1	514.00	150.00	0.00	0.00	0.00	0.00	0.00	0.00	0	0	0	0	10.0000	0	0	0	0
20	115.85	112.86	136.00	-82.00	1.0000	100.00	1	298.00	90.00	0.00	0.00	0.00	0.00	0.00	0.00	0	0	0	0	10.0000	0	0	0	0
20	90.00	106.58	126.00	-57.00	1.0000	100.00	1	314.00	90.00	0.00	0.00	0.00	0.00	0.00	0.00	0	0	0	0	10.0000	0	0	0	0
21	600.00	193.03	9900.00	-9900.00	1.0000	100.00	1	1000.00	0.00	0.00	0.00	0.00	0.00	0.00	0.00	0	0	0	0	10.0000	0	0	0	0
22	600.00	136.70	9900.00	-9900.00	1.0000	100.00	1	1000.00	0.00	0.00	0.00	0.00	0.00	0.00	0.00	0	0	0	0	10.0000	0	0	0	0
];
%column_names%  Fuel_Types
mpc.gen_fuel = [
'coal';
'coal';
'wind';
'ng';
'nuclear';
'nuclear';
'coal';
'coal';
'unknown';
'unknown';
];

%%-----  OPF Data  -----%%
%% cost data
%    1    startup    shutdown    n    x1    y1    ...    xn    yn
%    2    startup    shutdown    n    c(n-1)    ...    c0
mpc.gencost = [
2	0	0	4	0.0000	0.010	20.000	100.00
2	0	0	4	0.0000	0.010	20.000	100.00
2	0	0	1	0	0	0	0
2	0	0	4	0.0000	0.010	15.000	100.00
2	0	0	4	0.0000	0.010	10.000	100.00
2	0	0	4	0.0000	0.010	10.000	100.00
2	0	0	4	0.0000	0.010	20.000	100.00
2	0	0	4	0.0000	0.010	20.000	100.00
2	0	0	4	0.0000	0.010	10.000	100.00
2	0	0	4	0.0000	0.010	10.000	100.00
];

%% branch data
%    f_bus    t_bus    r    x    b    rateA    rateB    rateC    ratio    angle    status    angmin    angmax
mpc.branch = [
1	3	0.000290	0.012690	0.00000	594.00	593.60	593.60	1.00000	0.000	1	0.00	0.00	105.00	104.67	-104.94	-101.88	0	0	0	0
2	3	0.000290	0.012620	0.00000	594.00	593.60	593.60	1.00000	0.000	1	0.00	0.00	105.00	105.24	-104.94	-102.46	0	0	0	0
4	3	0.001678	0.024040	0.25743	1096.00	1096.00	1096.00	0.00000	0.000	1	0.00	0.00	-444.21	-49.58	447.80	76.61	0	0	0	0
3	9	0.004054	0.058085	0.62202	1096.00	1096.00	1096.00	0.00000	0.000	1	0.00	0.00	-30.12	-35.68	30.16	-24.57	0	0	0	0
3	17	0.004700	0.067340	0.72110	1096.00	1096.00	1096.00	0.00000	0.000	1	0.00	0.00	-348.46	145.28	355.89	-103.95	0	0	0	0
3	19	0.002618	0.037507	0.40165	1096.00	1096.00	1096.00	0.00000	0.000	1	0.00	0.00	118.50	11.09	-118.10	-43.87	0	0	0	0
4	5	0.000370	0.023800	0.00060	500.00	500.00	500.00	1.00000	0.000	1	0.00	0.00	222.10	24.79	-221.90	-12.03	0	0	0	0
4	5	0.000370	0.023800	0.00060	500.00	500.00	500.00	1.00000	0.000	1	0.00	0.00	222.10	24.79	-221.90	-12.03	0	0	0	0
5	6	0.007900	0.074000	0.00000	208.00	208.00	208.00	1.00000	0.000	1	0.00	0.00	-144.13	-31.59	146.00	49.16	0	0	0	0
5	7	0.066931	0.266887	0.06597	208.00	208.00	208.00	0.00000	0.000	1	0.00	0.00	57.97	-4.29	-55.51	8.17	0	0	0	0
5	7	0.066930	0.266890	0.06600	208.00	208.00	208.00	0.00000	0.000	1	0.00	0.00	57.97	-4.30	-55.51	8.16	0	0	0	0
7	8	0.020235	0.080687	0.01994	208.00	208.00	208.00	0.00000	0.000	1	0.00	0.00	-6.17	-19.47	6.26	18.05	0	0	0	0
15	8	0.000370	0.023800	0.00000	500.00	500.00	500.00	1.00000	0.000	1	0.00	0.00	417.43	-23.03	-416.70	69.87	0	0	0	0
15	8	0.000370	0.023800	0.00000	500.00	500.00	500.00	1.00000	0.000	1	0.00	0.00	417.43	-23.03	-416.70	69.87	0	0	0	0
20	8	0.000750	0.043620	0.00000	345.00	345.00	345.00	1.00000	0.000	1	0.00	0.00	102.96	109.72	-102.79	-99.85	0	0	0	0
20	8	0.000750	0.043620	0.00000	345.00	345.00	345.00	1.00000	0.000	1	0.00	0.00	102.96	109.72	-102.79	-99.85	0	0	0	0
10	9	0.001427	0.020453	0.21902	1096.00	1096.00	1096.00	0.00000	0.000	1	0.00	0.00	19.52	-30.41	-19.50	9.14	0	0	0	0
9	12	0.002829	0.040528	0.43400	1096.00	1096.00	1096.00	0.00000	0.000	1	0.00	0.00	-161.26	3.47	162.02	-34.98	0	0	0	0
12	10	0.001801	0.025802	0.27630	1096.00	1096.00	1096.00	0.00000	0.000	1	0.00	0.00	238.06	-20.52	-237.02	8.57	0	0	0	0
11	17	0.004392	0.062931	0.67391	1096.00	1096.00	1096.00	0.00000	0.000	1	0.00	0.00	451.19	20.23	-440.40	78.05	0	0	0	0
21	11	0.003624	0.051918	0.55597	1096.00	1096.00	1096.00	0.00000	0.000	1	0.00	0.00	600.00	193.03	-585.19	-31.90	0	0	0	0
12	13	0.000500	0.021500	0.00000	566.00	566.00	566.00	1.00000	0.000	1	0.00	0.00	-511.68	-15.61	513.02	73.36	0	0	0	0
13	12	0.000500	0.021500	0.00000	566.00	566.00	566.00	1.00000	0.000	1	0.00	0.00	513.02	73.36	-511.68	-15.61	0	0	0	0
12	18	0.000270	0.003900	0.04180	1100.00	1100.00	1100.00	0.00000	0.000	1	0.00	0.00	623.27	86.73	-622.17	-74.94	0	0	0	0
15	14	0.002504	0.035871	0.38413	1096.00	1096.00	1096.00	0.00000	0.000	1	0.00	0.00	-453.61	-6.07	459.42	54.26	0	0	0	0
18	14	0.001362	0.019509	0.20891	1096.00	1096.00	1096.00	0.00000	0.000	1	0.00	0.00	548.10	67.93	-543.78	-25.87	0	0	0	0
19	14	0.001665	0.023851	0.25541	1096.00	1096.00	1096.00	0.00000	0.000	1	0.00	0.00	24.87	14.28	-24.84	-37.95	0	0	0	0
15	22	0.004050	0.058022	0.62134	1096.00	1096.00	1096.00	0.00000	0.000	1	0.00	0.00	-584.29	29.86	600.01	136.70	0	0	0	0
];

%% bus names
mpc.bus_name = {
'COL G1';
'COL G2';
'COL 345';
'MAD 345';
'MAD 138';
'WCCF CT';
'WAUKSHA138';
'MILW 138';
'APPLT 345';
'GRNBAY 345';
'EAUCLRE345';
'PNTBCH 345';
'PNTBCH G1';
'SHEGAN 345';
'MILW 345';
'WASAU 345';
'MANTWOC345';
'FOND 345';
'OAKCRK G';
'WORLD NW';
'World SE';
};


%column_names%  xcoord_1 ycoord_1
mpc.bus_coords = [
43.480  -89.417;
43.491  -89.418;
43.523	-89.394;
43.022	-89.490;
43.079	-89.374;
43.075	-89.425;
43.013	-88.244;
43.040	-87.902;
44.254	-88.410;
44.531	-88.014;
44.836	-91.516;
44.271	-87.583;
44.281	-87.536;
43.755	-87.717;
43.079	-88.064;
44.946	-89.637;
44.095	-87.670;
43.780	-88.452;
42.845	-87.838;
45.026	-92.763;
42.493	-87.867;
];

% %column_names% Generator Unit Types
% mpc.gen_type = {
% 'ST';
% 'ST';
% 'WT';
% 'CA';
% 'NB';
% 'NB';
% 'ST';
% 'ST';
% 'UN';
% 'UN';
% };
